# generated using pymatgen
data_Li3GeO4
_symmetry_space_group_name_H-M   Pnma
_cell_length_a   10.93800000
_cell_length_b   6.27400000
_cell_length_c   5.16090000
_cell_angle_alpha   90.00000000
_cell_angle_beta   90.00000000
_cell_angle_gamma   90.00000000
_symmetry_Int_Tables_number   62
_chemical_formula_structural   Li3GeO4
_chemical_formula_sum   'Li12 Ge4 O16'
_cell_volume   354.16682443
_cell_formula_units_Z   4
loop_
 _symmetry_equiv_pos_site_id
 _symmetry_equiv_pos_as_xyz
  1  'x, y, z'
  2  '-x, -y, -z'
  3  '-x+1/2, -y, z+1/2'
  4  'x+1/2, y, -z+1/2'
  5  'x+1/2, -y+1/2, -z+1/2'
  6  '-x+1/2, y+1/2, z+1/2'
  7  '-x, y+1/2, -z'
  8  'x, -y+1/2, z'
loop_
 _atom_site_type_symbol
 _atom_site_label
 _atom_site_symmetry_multiplicity
 _atom_site_fract_x
 _atom_site_fract_y
 _atom_site_fract_z
 _atom_site_occupancy
  Li  Li0  8  0.18148964  0.06312071  0.10374639  1
  Li  Li1  4  0.08228614  0.25000000  0.67223523  1
  Ge  Ge2  4  0.08042615  0.75000000  0.84484067  1
  O  O3  8  0.17475009  0.51905382  0.74124687  1
  O  O4  4  0.05217210  0.25000000  0.27390891  1
  O  O5  4  0.10217917  0.75000000  0.18184157  1
