# generated using pymatgen
data_Li8Ge2PS12
_symmetry_space_group_name_H-M   P4_2/nmc
_cell_length_a   8.71300000
_cell_length_b   8.71300000
_cell_length_c   12.63970000
_cell_angle_alpha   90.00000000
_cell_angle_beta   90.00000000
_cell_angle_gamma   90.00000000
_symmetry_Int_Tables_number   137
_chemical_formula_structural   Li8Ge2PS12
_chemical_formula_sum   'Li16 Ge4 P2 S24'
_cell_volume   959.56012925
_cell_formula_units_Z   2
loop_
 _symmetry_equiv_pos_site_id
 _symmetry_equiv_pos_as_xyz
  1  'x, y, z'
  2  '-y+1/2, x+1/2, z+1/2'
  3  '-x, -y, z'
  4  'y+1/2, -x+1/2, z+1/2'
  5  'x+1/2, -y+1/2, -z+1/2'
  6  '-y, -x, -z'
  7  '-x+1/2, y+1/2, -z+1/2'
  8  'y, x, -z'
  9  '-x+1/2, -y+1/2, -z+1/2'
  10  'y, -x, -z'
  11  'x+1/2, y+1/2, -z+1/2'
  12  '-y, x, -z'
  13  '-x, y, z'
  14  'y+1/2, x+1/2, z+1/2'
  15  'x, -y, z'
  16  '-y+1/2, -x+1/2, z+1/2'
loop_
 _atom_site_type_symbol
 _atom_site_label
 _atom_site_symmetry_multiplicity
 _atom_site_fract_x
 _atom_site_fract_y
 _atom_site_fract_z
 _atom_site_occupancy
  Li  Li0  8  0.24451645  0.24451645  0.00000000  1
  Li  Li1  4  0.00000000  0.00000000  0.24832411  1
  Li  Li2  4  0.00000000  0.50000000  0.43643922  1
  Ge  Ge3  4  0.00000000  0.50000000  0.18195140  1
  P  P4  2  0.00000000  0.00000000  0.50000000  1
  S  S5  8  0.00000000  0.18280880  0.40789063  1
  S  S6  8  0.00000000  0.30413163  0.11036590  1
  S  S7  8  0.00000000  0.30866887  0.79874919  1
