# generated using pymatgen
data_Li4YBr6
_symmetry_space_group_name_H-M   C2/m
_cell_length_a   6.91880000
_cell_length_b   11.97420000
_cell_length_c   6.86350000
_cell_angle_alpha   90.00000000
_cell_angle_beta   109.78000000
_cell_angle_gamma   90.00000000
_symmetry_Int_Tables_number   12
_chemical_formula_structural   Li4YBr6
_chemical_formula_sum   'Li8 Y2 Br12'
_cell_volume   535.07180004
_cell_formula_units_Z   2
loop_
 _symmetry_equiv_pos_site_id
 _symmetry_equiv_pos_as_xyz
  1  'x, y, z'
  2  '-x, -y, -z'
  3  '-x, y, -z'
  4  'x, -y, z'
  5  'x+1/2, y+1/2, z'
  6  '-x+1/2, -y+1/2, -z'
  7  '-x+1/2, y+1/2, -z'
  8  'x+1/2, -y+1/2, z'
loop_
 _atom_site_type_symbol
 _atom_site_label
 _atom_site_symmetry_multiplicity
 _atom_site_fract_x
 _atom_site_fract_y
 _atom_site_fract_z
 _atom_site_occupancy
  Li  Li0  4  0.00000000  0.21498022  0.50000000  1
  Li  Li1  4  0.00000000  0.32510267  0.00000000  1
  Y  Y2  2  0.00000000  0.00000000  0.00000000  1
  Br  Br3  8  0.23667775  0.34472927  0.76033135  1
  Br  Br4  4  0.24683290  0.50000000  0.23871749  1
