# generated using pymatgen
data_Li3PO4
_symmetry_space_group_name_H-M   Pnma
_cell_length_a   10.52587000
_cell_length_b   6.11525000
_cell_length_c   4.97031000
_cell_angle_alpha   90.00000000
_cell_angle_beta   90.00000000
_cell_angle_gamma   90.00000000
_symmetry_Int_Tables_number   62
_chemical_formula_structural   Li3PO4
_chemical_formula_sum   'Li12 P4 O16'
_cell_volume   319.93053697
_cell_formula_units_Z   4
loop_
 _symmetry_equiv_pos_site_id
 _symmetry_equiv_pos_as_xyz
  1  'x, y, z'
  2  '-x, -y, -z'
  3  '-x+1/2, -y, z+1/2'
  4  'x+1/2, y, -z+1/2'
  5  'x+1/2, -y+1/2, -z+1/2'
  6  '-x+1/2, y+1/2, z+1/2'
  7  '-x, y+1/2, -z'
  8  'x, -y+1/2, z'
loop_
 _atom_site_type_symbol
 _atom_site_label
 _atom_site_symmetry_multiplicity
 _atom_site_fract_x
 _atom_site_fract_y
 _atom_site_fract_z
 _atom_site_occupancy
  Li  Li0  8  0.17150692  0.01213167  0.31434161  1
  Li  Li1  4  0.06568353  0.25000000  0.70476981  1
  P  P2  4  0.09934212  0.75000000  0.82260330  1
  O  O3  8  0.16403361  0.55380854  0.71362888  1
  O  O4  4  0.05128066  0.25000000  0.27364981  1
  O  O5  4  0.10157000  0.75000000  0.11981875  1
