# generated using pymatgen
data_PPbO4
_symmetry_space_group_name_H-M   P6_3/m
_cell_length_a   9.67900000
_cell_length_b   9.67900000
_cell_length_c   7.11300000
_cell_angle_alpha   90.00000000
_cell_angle_beta   90.00000000
_cell_angle_gamma   120.00000000
_symmetry_Int_Tables_number   176
_chemical_formula_structural   PPbO4
_chemical_formula_sum   'P6 Pb6 O24'
_cell_volume   577.09115782
_cell_formula_units_Z   6
loop_
 _symmetry_equiv_pos_site_id
 _symmetry_equiv_pos_as_xyz
  1  'x, y, z'
  2  '-x, -y, -z'
  3  'x-y, x, z+1/2'
  4  '-x+y, -x, -z+1/2'
  5  '-y, x-y, z'
  6  'y, -x+y, -z'
  7  '-x, -y, z+1/2'
  8  'x, y, -z+1/2'
  9  '-x+y, -x, z'
  10  'x-y, x, -z'
  11  'y, -x+y, z+1/2'
  12  '-y, x-y, -z+1/2'
loop_
 _atom_site_type_symbol
 _atom_site_label
 _atom_site_symmetry_multiplicity
 _atom_site_fract_x
 _atom_site_fract_y
 _atom_site_fract_z
 _atom_site_occupancy
  P  P0  6  0.03176704  0.39828785  0.75000000  1
  Pb  Pb1  6  0.00580432  0.75602494  0.75000000  1
  O  O2  12  0.07533894  0.36991254  0.59575718  1
  O  O3  6  0.12360299  0.59993576  0.75000000  1
  O  O4  6  0.16323889  0.63554540  0.25000000  1
