# generated using pymatgen
data_Li10PS12
_symmetry_space_group_name_H-M   P4_2/nmc
_cell_length_a   8.72902000
_cell_length_b   8.72902000
_cell_length_c   12.70650000
_cell_angle_alpha   90.00000000
_cell_angle_beta   90.00000000
_cell_angle_gamma   90.00000000
_symmetry_Int_Tables_number   137
_chemical_formula_structural   Li10PS12
_chemical_formula_sum   'Li20 P2 S24'
_cell_volume   968.18180767
_cell_formula_units_Z   2
loop_
 _symmetry_equiv_pos_site_id
 _symmetry_equiv_pos_as_xyz
  1  'x, y, z'
  2  '-y+1/2, x+1/2, z+1/2'
  3  '-x, -y, z'
  4  'y+1/2, -x+1/2, z+1/2'
  5  'x+1/2, -y+1/2, -z+1/2'
  6  '-y, -x, -z'
  7  '-x+1/2, y+1/2, -z+1/2'
  8  'y, x, -z'
  9  '-x+1/2, -y+1/2, -z+1/2'
  10  'y, -x, -z'
  11  'x+1/2, y+1/2, -z+1/2'
  12  '-y, x, -z'
  13  '-x, y, z'
  14  'y+1/2, x+1/2, z+1/2'
  15  'x, -y, z'
  16  '-y+1/2, -x+1/2, z+1/2'
loop_
 _atom_site_type_symbol
 _atom_site_label
 _atom_site_symmetry_multiplicity
 _atom_site_fract_x
 _atom_site_fract_y
 _atom_site_fract_z
 _atom_site_occupancy
  Li  Li0  8  0.00000000  0.47600000  0.55500000  1
  Li  Li1  8  0.24600000  0.24600000  0.50000000  1
  Li  Li2  4  0.00000000  0.00000000  0.25100000  1
  P  P3  2  0.00000000  0.00000000  0.00000000  1
  S  S4  8  0.00000000  0.18660000  0.09120000  1
  S  S5  8  0.00000000  0.29190000  0.40490000  1
  S  S6  8  0.00000000  0.29840000  0.70680000  1
