# generated using pymatgen
data_Li3Sn(SeS)2
_symmetry_space_group_name_H-M   Pnma
_cell_length_a   14.62760000
_cell_length_b   8.07968000
_cell_length_c   6.48252000
_cell_angle_alpha   90.00000000
_cell_angle_beta   90.00000000
_cell_angle_gamma   90.00000000
_symmetry_Int_Tables_number   62
_chemical_formula_structural   Li3Sn(SeS)2
_chemical_formula_sum   'Li12 Sn4 Se8 S8'
_cell_volume   766.14522959
_cell_formula_units_Z   4
loop_
 _symmetry_equiv_pos_site_id
 _symmetry_equiv_pos_as_xyz
  1  'x, y, z'
  2  '-x, -y, -z'
  3  '-x+1/2, -y, z+1/2'
  4  'x+1/2, y, -z+1/2'
  5  'x+1/2, -y+1/2, -z+1/2'
  6  '-x+1/2, y+1/2, z+1/2'
  7  '-x, y+1/2, -z'
  8  'x, -y+1/2, z'
loop_
 _atom_site_type_symbol
 _atom_site_label
 _atom_site_symmetry_multiplicity
 _atom_site_fract_x
 _atom_site_fract_y
 _atom_site_fract_z
 _atom_site_occupancy
  Li  Li0  8  0.17918041  0.51216561  0.31055706  1
  Li  Li1  4  0.09177494  0.25000000  0.89260052  1
  Sn  Sn2  4  0.09638438  0.75000000  0.84599967  1
  Se  Se3  8  0.16157697  0.00993969  0.74230274  1
  S  S4  4  0.08155944  0.25000000  0.27670892  1
  S  S5  4  0.08438347  0.75000000  0.21659682  1
