# generated using pymatgen
data_Li4(MoO4)3
_symmetry_space_group_name_H-M   Pnma
_cell_length_a   5.07000000
_cell_length_b   10.48000000
_cell_length_c   17.64000000
_cell_angle_alpha   90.00000000
_cell_angle_beta   90.00000000
_cell_angle_gamma   90.00000000
_symmetry_Int_Tables_number   62
_chemical_formula_structural   Li4(MoO4)3
_chemical_formula_sum   'Li16 Mo12 O48'
_cell_volume   937.27670400
_cell_formula_units_Z   4
loop_
 _symmetry_equiv_pos_site_id
 _symmetry_equiv_pos_as_xyz
  1  'x, y, z'
  2  '-x, -y, -z'
  3  '-x+1/2, -y, z+1/2'
  4  'x+1/2, y, -z+1/2'
  5  'x+1/2, -y+1/2, -z+1/2'
  6  '-x+1/2, y+1/2, z+1/2'
  7  '-x, y+1/2, -z'
  8  'x, -y+1/2, z'
loop_
 _atom_site_type_symbol
 _atom_site_label
 _atom_site_symmetry_multiplicity
 _atom_site_fract_x
 _atom_site_fract_y
 _atom_site_fract_z
 _atom_site_occupancy
  Li  Li0  8  0.24714828  0.06169246  0.96083554  1
  Li  Li1  4  0.10789128  0.25000000  0.26250470  1
  Li  Li2  4  0.24670456  0.25000000  0.77419093  1
  Mo  Mo3  8  0.21673446  0.01624662  0.64962371  1
  Mo  Mo4  4  0.24758828  0.75000000  0.95686151  1
  O  O5  8  0.06852489  0.62217425  0.37332442  1
  O  O6  8  0.08914249  0.01362865  0.07624764  1
  O  O7  8  0.09295979  0.63435157  0.20394834  1
  O  O8  8  0.09401003  0.12706088  0.45375476  1
  O  O9  8  0.13418783  0.61243088  0.71376514  1
  O  O10  4  0.03936861  0.25000000  0.99662642  1
  O  O11  4  0.12363042  0.75000000  0.84142221  1
