# generated using pymatgen
data_Li3SnSe4
_symmetry_space_group_name_H-M   Pnma
_cell_length_a   14.98259000
_cell_length_b   8.25908000
_cell_length_c   6.62790000
_cell_angle_alpha   90.00000000
_cell_angle_beta   90.00000000
_cell_angle_gamma   90.00000000
_symmetry_Int_Tables_number   62
_chemical_formula_structural   Li3SnSe4
_chemical_formula_sum   'Li12 Sn4 Se16'
_cell_volume   820.15231538
_cell_formula_units_Z   4
loop_
 _symmetry_equiv_pos_site_id
 _symmetry_equiv_pos_as_xyz
  1  'x, y, z'
  2  '-x, -y, -z'
  3  '-x+1/2, -y, z+1/2'
  4  'x+1/2, y, -z+1/2'
  5  'x+1/2, -y+1/2, -z+1/2'
  6  '-x+1/2, y+1/2, z+1/2'
  7  '-x, y+1/2, -z'
  8  'x, -y+1/2, z'
loop_
 _atom_site_type_symbol
 _atom_site_label
 _atom_site_symmetry_multiplicity
 _atom_site_fract_x
 _atom_site_fract_y
 _atom_site_fract_z
 _atom_site_occupancy
  Li  Li0  8  0.19109106  0.51357045  0.30385137  1
  Li  Li1  4  0.09927768  0.25000000  0.87782360  1
  Sn  Sn2  4  0.09296924  0.75000000  0.86430800  1
  Se  Se3  8  0.16624568  0.00364426  0.72323630  1
  Se  Se4  4  0.06503253  0.25000000  0.27670395  1
  Se  Se5  4  0.07316146  0.75000000  0.23718453  1
