# generated using pymatgen
data_Li8Si2PS12
_symmetry_space_group_name_H-M   P4_2/nmc
_cell_length_a   8.67822000
_cell_length_b   8.67822000
_cell_length_c   12.57440000
_cell_angle_alpha   90.00000000
_cell_angle_beta   90.00000000
_cell_angle_gamma   90.00000000
_symmetry_Int_Tables_number   137
_chemical_formula_structural   Li8Si2PS12
_chemical_formula_sum   'Li16 Si4 P2 S24'
_cell_volume   946.99695538
_cell_formula_units_Z   2
loop_
 _symmetry_equiv_pos_site_id
 _symmetry_equiv_pos_as_xyz
  1  'x, y, z'
  2  '-y+1/2, x+1/2, z+1/2'
  3  '-x, -y, z'
  4  'y+1/2, -x+1/2, z+1/2'
  5  'x+1/2, -y+1/2, -z+1/2'
  6  '-y, -x, -z'
  7  '-x+1/2, y+1/2, -z+1/2'
  8  'y, x, -z'
  9  '-x+1/2, -y+1/2, -z+1/2'
  10  'y, -x, -z'
  11  'x+1/2, y+1/2, -z+1/2'
  12  '-y, x, -z'
  13  '-x, y, z'
  14  'y+1/2, x+1/2, z+1/2'
  15  'x, -y, z'
  16  '-y+1/2, -x+1/2, z+1/2'
loop_
 _atom_site_type_symbol
 _atom_site_label
 _atom_site_symmetry_multiplicity
 _atom_site_fract_x
 _atom_site_fract_y
 _atom_site_fract_z
 _atom_site_occupancy
  Li  Li0  8  0.24438398  0.24438398  0.00000000  1
  Li  Li1  4  0.00000000  0.00000000  0.22427275  1
  Li  Li2  4  0.00000000  0.50000000  0.45571905  1
  Si  Si3  4  0.00000000  0.50000000  0.19595479  1
  P  P4  2  0.00000000  0.00000000  0.50000000  1
  S  S5  8  0.00000000  0.17661542  0.43040194  1
  S  S6  8  0.00000000  0.28236376  0.11509502  1
  S  S7  8  0.00000000  0.30392754  0.77513356  1
