# generated using pymatgen
data_Li2PO4
_symmetry_space_group_name_H-M   P2_12_12_1
_cell_length_a   4.93910000
_cell_length_b   6.48030000
_cell_length_c   10.14680000
_cell_angle_alpha   90.00000000
_cell_angle_beta   90.00000000
_cell_angle_gamma   90.00000000
_symmetry_Int_Tables_number   19
_chemical_formula_structural   Li2PO4
_chemical_formula_sum   'Li8 P4 O16'
_cell_volume   324.76710284
_cell_formula_units_Z   4
loop_
 _symmetry_equiv_pos_site_id
 _symmetry_equiv_pos_as_xyz
  1  'x, y, z'
  2  '-x+1/2, -y, z+1/2'
  3  'x+1/2, -y+1/2, -z'
  4  '-x, y+1/2, -z+1/2'
loop_
 _atom_site_type_symbol
 _atom_site_label
 _atom_site_symmetry_multiplicity
 _atom_site_fract_x
 _atom_site_fract_y
 _atom_site_fract_z
 _atom_site_occupancy
  Li  Li0  4  0.18260000  0.24620000  0.57840000  1
  Li  Li1  4  0.19080000  0.74680000  0.60320000  1
  P  P2  4  0.18790000  0.00770000  0.34196000  1
  O  O3  4  0.12290000  0.48970000  0.14340000  1
  O  O4  4  0.19560000  0.81140000  0.91590000  1
  O  O5  4  0.20900000  0.20020000  0.90470000  1
  O  O6  4  0.22950000  0.98680000  0.69590000  1
