# generated using pymatgen
data_Li3SnS4
_symmetry_space_group_name_H-M   P-3m1
_cell_length_a   8.01709000
_cell_length_b   8.01709000
_cell_length_c   6.28461000
_cell_angle_alpha   90.00000000
_cell_angle_beta   90.00000000
_cell_angle_gamma   120.00000000
_symmetry_Int_Tables_number   164
_chemical_formula_structural   Li3SnS4
_chemical_formula_sum   'Li6 Sn2 S8'
_cell_volume   349.81826531
_cell_formula_units_Z   2
loop_
 _symmetry_equiv_pos_site_id
 _symmetry_equiv_pos_as_xyz
  1  'x, y, z'
  2  '-x, -y, -z'
  3  '-y, x-y, z'
  4  'y, -x+y, -z'
  5  '-x+y, -x, z'
  6  'x-y, x, -z'
  7  'y, x, -z'
  8  '-y, -x, z'
  9  'x-y, -y, -z'
  10  '-x+y, y, z'
  11  '-x, -x+y, -z'
  12  'x, x-y, z'
loop_
 _atom_site_type_symbol
 _atom_site_label
 _atom_site_symmetry_multiplicity
 _atom_site_fract_x
 _atom_site_fract_y
 _atom_site_fract_z
 _atom_site_occupancy
  Li  Li0  6  0.15650016  0.31300033  0.85720000  1
  Sn  Sn1  2  0.33333333  0.66666667  0.13620000  1
  S  S2  6  0.17657484  0.35314967  0.26300000  1
  S  S3  2  0.33333333  0.66666667  0.76460000  1
