# generated using pymatgen
data_Sm5Si3O13
_symmetry_space_group_name_H-M   P6_3/m
_cell_length_a   9.46010000
_cell_length_b   9.46010000
_cell_length_c   6.91130000
_cell_angle_alpha   90.00000000
_cell_angle_beta   90.00000000
_cell_angle_gamma   120.00000000
_symmetry_Int_Tables_number   176
_chemical_formula_structural   Sm5Si3O13
_chemical_formula_sum   'Sm10 Si6 O26'
_cell_volume   535.65089023
_cell_formula_units_Z   2
loop_
 _symmetry_equiv_pos_site_id
 _symmetry_equiv_pos_as_xyz
  1  'x, y, z'
  2  '-x, -y, -z'
  3  'x-y, x, z+1/2'
  4  '-x+y, -x, -z+1/2'
  5  '-y, x-y, z'
  6  'y, -x+y, -z'
  7  '-x, -y, z+1/2'
  8  'x, y, -z+1/2'
  9  '-x+y, -x, z'
  10  'x-y, x, -z'
  11  'y, -x+y, z+1/2'
  12  '-y, x-y, -z+1/2'
loop_
 _atom_site_type_symbol
 _atom_site_label
 _atom_site_symmetry_multiplicity
 _atom_site_fract_x
 _atom_site_fract_y
 _atom_site_fract_z
 _atom_site_occupancy
  Sm  Sm0  6  0.00213356  0.76444929  0.25000000  1
  Sm  Sm1  4  0.33333333  0.66666667  0.00837296  1
  Si  Si2  6  0.02727369  0.61650566  0.75000000  1
  O  O3  12  0.07110164  0.74902844  0.58175511  1
  O  O4  6  0.11783657  0.53095825  0.75000000  1
  O  O5  6  0.15214951  0.49568214  0.25000000  1
  O  O6  2  0.00000000  0.00000000  0.25000000  1
