# generated using pymatgen
data_Li3GeSe4
_symmetry_space_group_name_H-M   Pnma
_cell_length_a   14.59532000
_cell_length_b   8.22373000
_cell_length_c   6.49299000
_cell_angle_alpha   90.00000000
_cell_angle_beta   90.00000000
_cell_angle_gamma   90.00000000
_symmetry_Int_Tables_number   62
_chemical_formula_structural   Li3GeSe4
_chemical_formula_sum   'Li12 Ge4 Se16'
_cell_volume   779.34041506
_cell_formula_units_Z   4
loop_
 _symmetry_equiv_pos_site_id
 _symmetry_equiv_pos_as_xyz
  1  'x, y, z'
  2  '-x, -y, -z'
  3  '-x+1/2, -y, z+1/2'
  4  'x+1/2, y, -z+1/2'
  5  'x+1/2, -y+1/2, -z+1/2'
  6  '-x+1/2, y+1/2, z+1/2'
  7  '-x, y+1/2, -z'
  8  'x, -y+1/2, z'
loop_
 _atom_site_type_symbol
 _atom_site_label
 _atom_site_symmetry_multiplicity
 _atom_site_fract_x
 _atom_site_fract_y
 _atom_site_fract_z
 _atom_site_occupancy
  Li  Li0  8  0.15536741  0.01066666  0.14144548  1
  Li  Li1  4  0.08337649  0.25000000  0.85609007  1
  Ge  Ge2  4  0.08317003  0.75000000  0.85543317  1
  Se  Se3  8  0.15889723  0.50566806  0.72989315  1
  Se  Se4  4  0.05918302  0.25000000  0.26265672  1
  Se  Se5  4  0.07980613  0.75000000  0.21431429  1
