# generated using pymatgen
data_NbO3
_symmetry_space_group_name_H-M   Pmmm
_cell_length_a   3.91670000
_cell_length_b   3.93040000
_cell_length_c   7.84600000
_cell_angle_alpha   90.00000000
_cell_angle_beta   90.00000000
_cell_angle_gamma   90.00000000
_symmetry_Int_Tables_number   47
_chemical_formula_structural   NbO3
_chemical_formula_sum   'Nb2 O6'
_cell_volume   120.78287500
_cell_formula_units_Z   2
loop_
 _symmetry_equiv_pos_site_id
 _symmetry_equiv_pos_as_xyz
  1  'x, y, z'
  2  '-x, -y, -z'
  3  '-x, -y, z'
  4  'x, y, -z'
  5  'x, -y, -z'
  6  '-x, y, z'
  7  '-x, y, -z'
  8  'x, -y, z'
loop_
 _atom_site_type_symbol
 _atom_site_label
 _atom_site_symmetry_multiplicity
 _atom_site_fract_x
 _atom_site_fract_y
 _atom_site_fract_z
 _atom_site_occupancy
  Nb  Nb0  2  0.50000000  0.50000000  0.26269827  1
  O  O1  2  0.00000000  0.50000000  0.29076648  1
  O  O2  2  0.50000000  0.00000000  0.25086683  1
  O  O3  1  0.50000000  0.50000000  0.00000000  1
  O  O4  1  0.50000000  0.50000000  0.50000000  1
