# generated using pymatgen
data_Li3GeS4
_symmetry_space_group_name_H-M   Pnma
_cell_length_a   14.25036000
_cell_length_b   7.85208000
_cell_length_c   6.22238000
_cell_angle_alpha   90.00000000
_cell_angle_beta   90.00000000
_cell_angle_gamma   90.00000000
_symmetry_Int_Tables_number   62
_chemical_formula_structural   Li3GeS4
_chemical_formula_sum   'Li12 Ge4 S16'
_cell_volume   696.25300320
_cell_formula_units_Z   4
loop_
 _symmetry_equiv_pos_site_id
 _symmetry_equiv_pos_as_xyz
  1  'x, y, z'
  2  '-x, -y, -z'
  3  '-x+1/2, -y, z+1/2'
  4  'x+1/2, y, -z+1/2'
  5  'x+1/2, -y+1/2, -z+1/2'
  6  '-x+1/2, y+1/2, z+1/2'
  7  '-x, y+1/2, -z'
  8  'x, -y+1/2, z'
loop_
 _atom_site_type_symbol
 _atom_site_label
 _atom_site_symmetry_multiplicity
 _atom_site_fract_x
 _atom_site_fract_y
 _atom_site_fract_z
 _atom_site_occupancy
  Li  Li0  8  0.19063524  0.52585528  0.30772448  1
  Li  Li1  4  0.08391246  0.25000000  0.86130716  1
  Ge  Ge2  4  0.07422262  0.75000000  0.85406874  1
  S  S3  8  0.15462632  0.50800301  0.71784072  1
  S  S4  4  0.05519237  0.25000000  0.27045330  1
  S  S5  4  0.09630789  0.75000000  0.20386061  1
