# generated using pymatgen
data_Li8PS12
_symmetry_space_group_name_H-M   P4_2/nmc
_cell_length_a   8.65173000
_cell_length_b   8.65173000
_cell_length_c   12.53490000
_cell_angle_alpha   90.00000000
_cell_angle_beta   90.00000000
_cell_angle_gamma   90.00000000
_symmetry_Int_Tables_number   137
_chemical_formula_structural   Li8PS12
_chemical_formula_sum   'Li16 P2 S24'
_cell_volume   938.26774979
_cell_formula_units_Z   2
loop_
 _symmetry_equiv_pos_site_id
 _symmetry_equiv_pos_as_xyz
  1  'x, y, z'
  2  '-y+1/2, x+1/2, z+1/2'
  3  '-x, -y, z'
  4  'y+1/2, -x+1/2, z+1/2'
  5  'x+1/2, -y+1/2, -z+1/2'
  6  '-y, -x, -z'
  7  '-x+1/2, y+1/2, -z+1/2'
  8  'y, x, -z'
  9  '-x+1/2, -y+1/2, -z+1/2'
  10  'y, -x, -z'
  11  'x+1/2, y+1/2, -z+1/2'
  12  '-y, x, -z'
  13  '-x, y, z'
  14  'y+1/2, x+1/2, z+1/2'
  15  'x, -y, z'
  16  '-y+1/2, -x+1/2, z+1/2'
loop_
 _atom_site_type_symbol
 _atom_site_label
 _atom_site_symmetry_multiplicity
 _atom_site_fract_x
 _atom_site_fract_y
 _atom_site_fract_z
 _atom_site_occupancy
  Li  Li0  8  0.23822751  0.23822751  0.00000000  1
  Li  Li1  4  0.00000000  0.00000000  0.21549598  1
  Li  Li2  4  0.00000000  0.50000000  0.42577861  1
  P  P3  2  0.00000000  0.00000000  0.50000000  1
  S  S4  8  0.00000000  0.19236307  0.40891802  1
  S  S5  8  0.00000000  0.29312148  0.09746159  1
  S  S6  8  0.00000000  0.30372859  0.79134661  1
