# generated using pymatgen
data_Li2AlS3
_symmetry_space_group_name_H-M   C2/c
_cell_length_a   14.31901000
_cell_length_b   11.98037000
_cell_length_c   6.62700000
_cell_angle_alpha   90.00000000
_cell_angle_beta   116.92310000
_cell_angle_gamma   90.00000000
_symmetry_Int_Tables_number   15
_chemical_formula_structural   Li2AlS3
_chemical_formula_sum   'Li16 Al8 S24'
_cell_volume   1013.62563093
_cell_formula_units_Z   8
loop_
 _symmetry_equiv_pos_site_id
 _symmetry_equiv_pos_as_xyz
  1  'x, y, z'
  2  '-x, -y, -z'
  3  '-x, y, -z+1/2'
  4  'x, -y, z+1/2'
  5  'x+1/2, y+1/2, z'
  6  '-x+1/2, -y+1/2, -z'
  7  '-x+1/2, y+1/2, -z+1/2'
  8  'x+1/2, -y+1/2, z+1/2'
loop_
 _atom_site_type_symbol
 _atom_site_label
 _atom_site_symmetry_multiplicity
 _atom_site_fract_x
 _atom_site_fract_y
 _atom_site_fract_z
 _atom_site_occupancy
  Li  Li0  8  0.07559887  0.44345417  0.65874542  1
  Li  Li1  8  0.18508091  0.06233623  0.81333083  1
  Al  Al2  8  0.18868730  0.23732835  0.24747556  1
  S  S3  8  0.10860852  0.40333836  0.03308537  1
  S  S4  8  0.11687062  0.10118773  0.05205795  1
  S  S5  8  0.14475649  0.23244108  0.55785544  1
