# generated using pymatgen
data_Li3GeSe4
_symmetry_space_group_name_H-M   Pnma
_cell_length_a   14.47728000
_cell_length_b   8.11467000
_cell_length_c   6.41034000
_cell_angle_alpha   90.00000000
_cell_angle_beta   90.00000000
_cell_angle_gamma   90.00000000
_symmetry_Int_Tables_number   62
_chemical_formula_structural   Li3GeSe4
_chemical_formula_sum   'Li12 Ge4 Se16'
_cell_volume   753.07616420
_cell_formula_units_Z   4
loop_
 _symmetry_equiv_pos_site_id
 _symmetry_equiv_pos_as_xyz
  1  'x, y, z'
  2  '-x, -y, -z'
  3  '-x+1/2, -y, z+1/2'
  4  'x+1/2, y, -z+1/2'
  5  'x+1/2, -y+1/2, -z+1/2'
  6  '-x+1/2, y+1/2, z+1/2'
  7  '-x, y+1/2, -z'
  8  'x, -y+1/2, z'
loop_
 _atom_site_type_symbol
 _atom_site_label
 _atom_site_symmetry_multiplicity
 _atom_site_fract_x
 _atom_site_fract_y
 _atom_site_fract_z
 _atom_site_occupancy
  Li  Li0  8  0.18013141  0.00273588  0.16756219  1
  Li  Li1  4  0.07784507  0.25000000  0.86372501  1
  Ge  Ge2  4  0.09597726  0.75000000  0.85956956  1
  Se  Se3  8  0.16741162  0.52230820  0.72649796  1
  Se  Se4  4  0.05977901  0.25000000  0.27409961  1
  Se  Se5  4  0.07865913  0.75000000  0.21789369  1
