# generated using pymatgen
data_Li3SiO4
_symmetry_space_group_name_H-M   P2_1/m
_cell_length_a   5.10536000
_cell_length_b   6.11225000
_cell_length_c   5.29671000
_cell_angle_alpha   90.00000000
_cell_angle_beta   90.36920000
_cell_angle_gamma   90.00000000
_symmetry_Int_Tables_number   11
_chemical_formula_structural   Li3SiO4
_chemical_formula_sum   'Li6 Si2 O8'
_cell_volume   165.28165760
_cell_formula_units_Z   2
loop_
 _symmetry_equiv_pos_site_id
 _symmetry_equiv_pos_as_xyz
  1  'x, y, z'
  2  '-x, -y, -z'
  3  '-x, y+1/2, -z'
  4  'x, -y+1/2, z'
loop_
 _atom_site_type_symbol
 _atom_site_label
 _atom_site_symmetry_multiplicity
 _atom_site_fract_x
 _atom_site_fract_y
 _atom_site_fract_z
 _atom_site_occupancy
  Li  Li0  4  0.17606651  0.00332317  0.15612672  1
  Li  Li1  2  0.17404831  0.25000000  0.63795623  1
  Si  Si2  2  0.33971731  0.75000000  0.67235144  1
  O  O3  4  0.23048424  0.52124835  0.82522126  1
  O  O4  2  0.23758354  0.75000000  0.38260843  1
  O  O5  2  0.35509949  0.25000000  0.31111757  1
